Circuit: * C:\Users\Alex\Desktop\MOSH\Spice\Trigger_Schmitt.asc

Direct Newton iteration for .op point succeeded.

Date: Mon Oct 22 14:53:24 2018
Total elapsed time: 0.342 seconds.

tnom = 27
temp = 27
method = modified trap
totiter = 7193
traniter = 7182
tranpoints = 2228
accept = 1873
rejected = 355
matrix size = 38
fillins = 33
solver = Normal
Matrix Compiler1: 3.09 KB object code size  0.8/0.4/[0.2]
Matrix Compiler2: off  [0.3]/0.4/0.4


